19
XYZ file generated by orca_plot on BaseName=vanadium
  V      -3.980875      1.289715      0.060208
  O      -3.972310      3.361033     -0.462505
  O      -3.993848     -0.780874      0.585547
  O      -1.921917      1.407449      0.619142
  O      -6.038506      1.172517     -0.498659
  O      -4.540522      1.797017      2.058050
  O      -3.428583      0.783616     -1.940582
  H      -4.719300      3.868218     -0.809472
  H      -4.740175     -1.392402      0.517282
  H      -1.576985      1.639370      1.492489
  H      -6.806170      1.321278      0.070537
  H      -4.695918      2.686513      2.404606
  H      -3.258509      1.401998     -2.664623
  H      -6.381782      0.934322     -1.370955
  H      -3.227416      3.974308     -0.394276
  H      -3.264776     -0.103165     -2.290188
  H      -1.154748      1.262610      0.048243
  H      -3.247833     -1.290986      0.930367
  H      -4.712647      1.182992      2.785290
