4
Coordinates from ORCA-job methyl
  C   1.35214034465748     -0.97341597913532      0.40734294679618
  H   0.97392978652551     -0.87852848428547      1.42541037354900
  H   2.18133909270493     -0.34959554564444      0.07249388292904
  H   0.90371077611207     -1.69440999093477     -0.27667720327423
