10
Coordinates from ORCA-job propyl
  C   -2.37964293941277      0.97540552457543     -0.37551572442394
  C   -1.29119052330195     -0.01630060108962      0.05696646819320
  C   0.09164382663828      0.45209434070944     -0.22547360171399
  H   -3.38352314646729      0.58451795805900     -0.14466179876644
  H   -2.33326324324845      1.17068593965681     -1.45808206622910
  H   -2.26747891409647      1.94119869433960      0.14075286427131
  H   -1.47040941653222     -0.97863202087919     -0.45302009218818
  H   -1.40517389874722     -0.21429644864955      1.13688862410814
  H   0.62068300023156      1.10048537653852      0.47898198848043
  H   0.54644525493653      0.29982123673956     -1.20834666173144
